108

H    -0.1762515      0.0916118     -0.0497433
H     3.7125173      3.3123999      0.0417425
H     3.3373078     -0.0788371      3.6909519
H    -0.2142081      3.6553582      3.6906872
H    -0.1762515      0.0916118      7.1957511
H     3.7125173      3.3123999      7.2872368
H     3.3373078     -0.0788371     10.9364462
H    -0.2142081      3.6553582     10.9361816
H    -0.1762515      0.0916118     -7.2952376
H     3.7125173      3.3123999     -7.2037519
H     3.3373078     -0.0788371     -3.5545425
H    -0.2142081      3.6553582     -3.5548072
H    -0.1762515      7.3371062     -0.0497433
H     3.7125173     10.5578943      0.0417425
H     3.3373078      7.1666573      3.6909519
H    -0.2142081     10.9008526      3.6906872
H    -0.1762515      7.3371062      7.1957511
H     3.7125173     10.5578943      7.2872368
H     3.3373078      7.1666573     10.9364462
H    -0.2142081     10.9008526     10.9361816
H    -0.1762515      7.3371062     -7.2952376
H     3.7125173     10.5578943     -7.2037519
H     3.3373078      7.1666573     -3.5545425
H    -0.2142081     10.9008526     -3.5548072
H    -0.1762515     -7.1538826     -0.0497433
H     3.7125173     -3.9330945      0.0417425
H     3.3373078     -7.3243315      3.6909519
H    -0.2142081     -3.5901361      3.6906872
H    -0.1762515     -7.1538826      7.1957511
H     3.7125173     -3.9330945      7.2872368
H     3.3373078     -7.3243315     10.9364462
H    -0.2142081     -3.5901361     10.9361816
H    -0.1762515     -7.1538826     -7.2952376
H     3.7125173     -3.9330945     -7.2037519
H     3.3373078     -7.3243315     -3.5545425
H    -0.2142081     -3.5901361     -3.5548072
H     7.0692429      0.0916118     -0.0497433
H    10.9580117      3.3123999      0.0417425
H    10.5828022     -0.0788371      3.6909519
H     7.0312862      3.6553582      3.6906872
H     7.0692429      0.0916118      7.1957511
H    10.9580117      3.3123999      7.2872368
H    10.5828022     -0.0788371     10.9364462
H     7.0312862      3.6553582     10.9361816
H     7.0692429      0.0916118     -7.2952376
H    10.9580117      3.3123999     -7.2037519
H    10.5828022     -0.0788371     -3.5545425
H     7.0312862      3.6553582     -3.5548072
H     7.0692429      7.3371062     -0.0497433
H    10.9580117     10.5578943      0.0417425
H    10.5828022      7.1666573      3.6909519
H     7.0312862     10.9008526      3.6906872
H     7.0692429      7.3371062      7.1957511
H    10.9580117     10.5578943      7.2872368
H    10.5828022      7.1666573     10.9364462
H     7.0312862     10.9008526     10.9361816
H     7.0692429      7.3371062     -7.2952376
H    10.9580117     10.5578943     -7.2037519
H    10.5828022      7.1666573     -3.5545425
H     7.0312862     10.9008526     -3.5548072
H     7.0692429     -7.1538826     -0.0497433
H    10.9580117     -3.9330945      0.0417425
H    10.5828022     -7.3243315      3.6909519
H     7.0312862     -3.5901361      3.6906872
H     7.0692429     -7.1538826      7.1957511
H    10.9580117     -3.9330945      7.2872368
H    10.5828022     -7.3243315     10.9364462
H     7.0312862     -3.5901361     10.9361816
H     7.0692429     -7.1538826     -7.2952376
H    10.9580117     -3.9330945     -7.2037519
H    10.5828022     -7.3243315     -3.5545425
H     7.0312862     -3.5901361     -3.5548072
H    -7.4217459      0.0916118     -0.0497433
H    -3.5329771      3.3123999      0.0417425
H    -3.9081866     -0.0788371      3.6909519
H    -7.4597025      3.6553582      3.6906872
H    -7.4217459      0.0916118      7.1957511
H    -3.5329771      3.3123999      7.2872368
H    -3.9081866     -0.0788371     10.9364462
H    -7.4597025      3.6553582     10.9361816
H    -7.4217459      0.0916118     -7.2952376
H    -3.5329771      3.3123999     -7.2037519
H    -3.9081866     -0.0788371     -3.5545425
H    -7.4597025      3.6553582     -3.5548072
H    -7.4217459      7.3371062     -0.0497433
H    -3.5329771     10.5578943      0.0417425
H    -3.9081866      7.1666573      3.6909519
H    -7.4597025     10.9008526      3.6906872
H    -7.4217459      7.3371062      7.1957511
H    -3.5329771     10.5578943      7.2872368
H    -3.9081866      7.1666573     10.9364462
H    -7.4597025     10.9008526     10.9361816
H    -7.4217459      7.3371062     -7.2952376
H    -3.5329771     10.5578943     -7.2037519
H    -3.9081866      7.1666573     -3.5545425
H    -7.4597025     10.9008526     -3.5548072
H    -7.4217459     -7.1538826     -0.0497433
H    -3.5329771     -3.9330945      0.0417425
H    -3.9081866     -7.3243315      3.6909519
H    -7.4597025     -3.5901361      3.6906872
H    -7.4217459     -7.1538826      7.1957511
H    -3.5329771     -3.9330945      7.2872368
H    -3.9081866     -7.3243315     10.9364462
H    -7.4597025     -3.5901361     10.9361816
H    -7.4217459     -7.1538826     -7.2952376
H    -3.5329771     -3.9330945     -7.2037519
H    -3.9081866     -7.3243315     -3.5545425
H    -7.4597025     -3.5901361     -3.5548072
